*Heading
** Job name: DSR_ABAQUS Model name: Model-1
** Generated by: Abaqus/CAE 2022
*Preprint, echo=NO, model=NO, history=NO, contact=NO
**
** PARTS
**
*Part, name=Part-1
*Node
      1, 0.00393148884, -0.000737154158,           0.
      2, 0.00393148884, -0.000737154158, 0.00200000009
      3, 0.0039928779, -0.000238595268,           0.
      4, 0.00399129651, 0.000263726397,           0.
      5, 0.0039267703, 0.000761888979,           0.
      6, 0.00380031648, 0.00124803605,           0.
      7, 0.0036139295, 0.00171450083,           0.
      8, 0.0033705486, 0.00215392699,           0.
      9, 0.00307401223, 0.00255938433,           0.
     10, 0.0027289968, 0.00292447885,           0.
     11, 0.00234094355, 0.0032434524,           0.
     12, 0.0019159721, 0.00351127493,           0.
     13, 0.0014607847, 0.00372372242,           0.
     14, 0.000982559752, 0.00387744466,           0.
     15, 0.000488839287, 0.00397001719,           0.
     16, -1.25904162e-05, 0.00399998017,           0.
     17, -0.000513821607, 0.00396686094,           0.
     18, -0.00100694946, 0.00387118245,           0.
     19, -0.00148419722, 0.00371445273,           0.
     20, -0.00193803827, 0.00349914399,           0.
** ... 9767 like lines cut
*Element, type=C3D10
   1,  664,  665,  666,  667, 1410, 1409, 1408, 1412, 1411, 1413
   2,  664,  668,  667,  669, 1415, 1414, 1412, 1417, 1416, 1418
   3,  664,  665,  670,  671, 1410, 1420, 1419, 1422, 1421, 1423
   4,  664,  672,  671,  673, 1425, 1424, 1422, 1427, 1426, 1428
   5,  672,  674,  668,  664, 1431, 1430, 1429, 1425, 1432, 1415
   6,  674,  664,  675,  676, 1432, 1434, 1433, 1436, 1435, 1437
   7,  664,  674,  669,  676, 1432, 1438, 1417, 1435, 1436, 1439
   8,  677,  678,  679,  680, 1442, 1441, 1440, 1444, 1443, 1445
   9,  677,  681,  682,  683, 1448, 1447, 1446, 1450, 1449, 1451
  10,  684,  677,  680,  683, 1453, 1444, 1452, 1454, 1450, 1455
  11,  682,  677,  685,  681, 1446, 1457, 1456, 1447, 1448, 1458
  12,  677,  686,  681,  684, 1460, 1459, 1448, 1453, 1461, 1462
  13,  681,  682,  687,  685, 1447, 1464, 1463, 1458, 1456, 1465
  14,  688,  689,  690,  691, 1468, 1467, 1466, 1470, 1469, 1471
  15,  689,  688,  692,  691, 1468, 1473, 1472, 1469, 1470, 1474
  16,  689,  693,  694,  695, 1477, 1476, 1475, 1479, 1478, 1480
  17,  689,  696,  693,  692, 1482, 1481, 1477, 1472, 1483, 1484
  18,  689,  695,  697,  692, 1479, 1486, 1485, 1472, 1487, 1488
  19,  698,  437,  387,  438, 1491, 1490, 1489, 1493, 1492, 1494
  20,  689,  693,  699,  700, 1477, 1496, 1495, 1498, 1497, 1499
** ... 6293 like lines cut
*Nset, nset=_PickedSet2, internal, generate
    1,  9787,     1
*Elset, elset=_PickedSet2, internal, generate
    1,  6313,     1
** Section: Section-1
*Solid Section, elset=_PickedSet2, controls=EC-1, material=Material-1
,
*End Part
**  
*Part, name=Part-2
*Node
      1, 0.00357770873, -0.00178885437, 0.00150000001
      2, 0.00357770873, -0.00178885437,           0.
      3, 0.00332529447, -0.00222315453, 0.00150000001
      4, 0.00302043837, -0.00262239412, 0.00150000001
      5, 0.00266794837, -0.00298027718, 0.00150000001
      6, 0.00227338285, -0.0032911594, 0.00150000001
      7, 0.00184296502, -0.00355013809, 0.00150000001
      8, 0.00138348236, -0.00375312893, 0.00150000001
      9, 0.000902181375, -0.00389693072, 0.00150000001
     10, 0.000406652514, -0.00397927547, 0.00150000001
     11, -9.52895352e-05, -0.00399886491, 0.00150000001
     12, -0.000595728809, -0.00395538984, 0.00150000001
     13, -0.00108677312, -0.00384953548, 0.00150000001
     14, -0.00156067824, -0.00368297216, 0.00150000001
     15, -0.0020099706, -0.00345832598, 0.00150000001
     16, -0.0024275647, -0.00317913992, 0.00150000001
     17, -0.00280687446, -0.00284981681, 0.00150000001
     18, -0.00314191822, -0.00247555063, 0.00150000001
     19, -0.0034274119, -0.00206224341, 0.00150000001
     20, -0.00365885347, -0.00161641324, 0.00150000001
** ... 591 like lines cut
*Element, type=R3D3
  1,   1,   3, 101
  2, 101, 150,   1
  3,   3,   4, 102
  4, 102, 101,   3
  5,   4,   5, 103
  6, 103, 102,   4
  7,   5,   6, 104
  8, 104, 103,   5
  9,   6,   7, 105
 10, 105, 104,   6
 11,   7,   8, 106
 12, 106, 105,   7
 13,   8,   9, 107
 14, 107, 106,   8
 15,   9,  10, 108
 16, 108, 107,   9
 17,  10,  11, 109
 18, 109, 108,  10
 19,  11,  12, 110
 20, 110, 109,  11
** ... 1198 like lines cut
*Node
    612,           0., -2.44929368e-19, 0.00150000001
*Nset, nset=Part-2-RefPt_, internal
612, 
*Elset, elset=Part-2, generate
    1,  1218,     1
*End Part
**  
*Part, name=Part-3
*Node
      1, 0.00337464595, -0.00214750203, 0.00150000001
      2, 0.00337464595, -0.00214750203,           0.
      3, 0.00307888258, -0.00255352352, 0.00150000001
      4, 0.00273456331, -0.00291927462, 0.00150000001
      5, 0.00234711822, -0.00323898694, 0.00150000001
      6, 0.00192265783, -0.00350761833, 0.00150000001
      7, 0.0014678759, -0.00372093264, 0.00150000001
      8, 0.00098994479, -0.00387556572, 0.00150000001
      9, 0.000496401568, -0.00396907888, 0.00150000001
     10, -4.97015844e-06, -0.00399999693, 0.00150000001
     11, -0.000506263517, -0.00396783277, 0.00150000001
     12, -0.000999572803, -0.00387309352, 0.00150000001
     13, -0.00147711823, -0.00371727347, 0.00150000001
     14, -0.00193136861, -0.0035028297, 0.00150000001
     15, -0.00235516019, -0.00323314406, 0.00150000001
     16, -0.00274180947, -0.00291246991, 0.00150000001
     17, -0.0030852186, -0.00254586432, 0.00150000001
     18, -0.00337997219, -0.00213910919, 0.00150000001
     19, -0.00362142152, -0.00169861875, 0.00150000001
     20, -0.0038057589, -0.00123134011, 0.00150000001
** ... 598 like lines cut
*Element, type=R3D3
  1,   1,   3, 101
  2, 101, 150,   1
  3,   3,   4, 102
  4, 102, 101,   3
  5,   4,   5, 103
  6, 103, 102,   4
  7,   5,   6, 104
  8, 104, 103,   5
  9,   6,   7, 105
 10, 105, 104,   6
 11,   7,   8, 106
 12, 106, 105,   7
 13,   8,   9, 107
 14, 107, 106,   8
 15,   9,  10, 108
 16, 108, 107,   9
 17,  10,  11, 109
 18, 109, 108,  10
 19,  11,  12, 110
 20, 110, 109,  11
** ... 1212 like lines cut
*Node
    619,           0., 2.44929368e-19,           0.
*Nset, nset=Part-3-RefPt_, internal
619, 
*Elset, elset=Part-3, generate
    1,  1232,     1
*End Part
**  
**
** ASSEMBLY
**
*Assembly, name=Assembly
**  
*Instance, name=Part-1-1, part=Part-1
*End Instance
**  
*Instance, name=Part-2-1, part=Part-2
-1.04083408558608e-17,           0.,        0.002
*End Instance
**  
*Instance, name=Part-3-1, part=Part-3
          0.,           0.,      -0.0015
*End Instance
**  
*Nset, nset=RPB, instance=Part-3-1
 619,
*Nset, nset=RPT, instance=Part-2-1
 612,
*Nset, nset=_PickedSet19, internal, instance=Part-2-1
 612,
*Nset, nset=_PickedSet20, internal, instance=Part-3-1
 619,
*Elset, elset=_CP-1-Part-1-1_S3, internal, instance=Part-1-1
   19,  293,  605,  675,  762,  790,  964, 1502, 1628, 1638, 1658, 1678, 1737, 1754, 1770, 1794
 1813, 1837, 1894, 1939, 1999, 2010, 2015, 2056, 2091, 2095, 2191, 2208, 2228, 2271, 2303, 2305
 2320, 2333, 2346, 2388, 2402, 2461, 2508, 2511, 2566, 2567, 2578, 2616, 2629, 2646, 2717, 2758
 2759, 2766, 3024, 3030, 3043, 3045, 3054, 3060, 3074, 3087, 3098, 3100, 3102, 3103, 3117, 3119
 3126, 3131, 3140, 3150, 3155, 3159, 3162, 3182, 3187, 3191, 3200, 3206, 3216, 3223, 3228, 3233
 3238, 3240, 3255, 3258, 3262, 3272, 3273, 3274, 3277, 3278, 3304, 3316, 3330, 3332, 3336, 3340
 3345, 3352, 3356, 3363, 3371, 3375, 3380, 3393, 3397, 3399, 3406, 3409, 3424, 3437, 3440, 3442
 3451, 3455, 3460, 3463, 3465, 3474, 3480, 3483, 3484, 3488, 3495, 3497, 3505, 3508, 3511, 3512
 3542, 3551, 3555, 3556, 3565, 3573, 3574, 3584, 3588, 3596, 3597, 3604, 3610, 3612, 3615, 3622
 3623, 3625, 3629, 3633, 3634, 3646, 3657, 3659, 3682, 3702, 3703, 3705, 3712, 3718, 3722, 3723
 3731, 3735, 3739, 3740, 3744, 3757, 3770, 3783, 3788, 3791, 3806, 3807, 3816, 3825, 3826, 3831
 3841, 3842, 3853, 3859, 3860, 3876, 3878, 3883, 3888, 3893, 3894, 3897, 3898, 3901, 3929, 3937
 3938, 3955, 3958, 3960, 3961, 3964, 3976, 3985, 3986, 3989, 3992, 3998, 4006, 4011, 4012, 4013
 4021, 4022, 4025, 4036, 4038, 4047, 4048, 4055, 4059, 4071, 4079, 4083, 4096, 4097, 4099, 4100
 4103, 4105, 4116, 4118, 4119, 4124, 4126, 4128, 4141, 4147, 4148, 4157, 4158, 4169, 4172, 4175
 4179, 4187, 4194, 4198, 4200, 4202, 4207, 4209, 4212, 4222, 4268, 4285, 4288, 4309, 4328, 4330
 4368, 4376, 4400, 4421, 4441, 4487, 4492, 4504, 4511, 4548, 4734, 4792, 4910, 4994, 5258, 5356
 5385, 5463, 5468, 5603, 5608, 5616, 5830, 5906, 6016, 6207
*Elset, elset=_CP-1-Part-1-1_S1, internal, instance=Part-1-1
  132, 1368, 1670, 1728, 1773, 1784, 1820, 1902, 2007, 2067, 2154, 2239, 2289, 2322, 2359, 2453
 2606, 2610, 3048, 3059, 3063, 3135, 3412, 3456, 3471, 3621, 3641, 3708, 3950, 3988, 3993, 4037
 4042, 4074, 4086, 4098, 4127, 4139, 4196, 4327, 4934
*Elset, elset=_CP-1-Part-1-1_S2, internal, instance=Part-1-1
  459, 1263, 1587, 1736, 1801, 1863, 1893, 1903, 1955, 1976, 2021, 2026, 2028, 2064, 2107, 2182
 2206, 2209, 2244, 2559, 3052, 3084, 3166, 3172, 3197, 3263, 3300, 3301, 3329, 3378, 3400, 3445
 3568, 3652, 3707, 3882, 3994, 4000, 4058, 4087, 4134, 4168, 4208, 4225, 4254, 4287, 4347, 4614
*Elset, elset=_CP-1-Part-1-1_S4, internal, instance=Part-1-1
 1373, 1661, 1718, 1941, 2044, 2338, 2344, 3125, 3428, 3746, 3968, 3969, 3984, 4007, 4056, 4082
 4104, 4110, 4115, 4121, 4146, 4153, 4177, 4183, 4197, 4214, 4424, 4564, 5165
*Surface, type=ELEMENT, name=CP-1-Part-1-1
_CP-1-Part-1-1_S3, S3
_CP-1-Part-1-1_S1, S1
_CP-1-Part-1-1_S2, S2
_CP-1-Part-1-1_S4, S4
*Elset, elset=_CP-1-Part-2-1_SNEG, internal, instance=Part-2-1, generate
   1,  300,    1
*Surface, type=ELEMENT, name=CP-1-Part-2-1
_CP-1-Part-2-1_SNEG, SNEG
*Elset, elset=_CP-2-Part-1-1_S3, internal, instance=Part-1-1
   60,   70,  183,  378,  401,  486,  757,  830,  831,  946, 1060, 1118, 1283, 1351, 1474, 1480
 1504, 1625, 1708, 1827, 1851, 1853, 2099, 2253, 2308, 2399, 2426, 2443, 2485, 2486, 2499, 2501
 2505, 2580, 2606, 2620, 2625, 2626, 2631, 2662, 2707, 2722, 2740, 2800, 2817, 2854, 2876, 2881
 2886, 2898, 2908, 2915, 2930, 2933, 2953, 2964, 2999, 3007, 3025, 3050, 3123, 3135, 3144, 3160
 3198, 3229, 3232, 3241, 3270, 3280, 3283, 3321, 3410, 3430, 3436, 3441, 3482, 3486, 3498, 3538
 3562, 3564, 3571, 3595, 3635, 3638, 3671, 3674, 3677, 3683, 3717, 3756, 3778, 3813, 3817, 3830
 3854, 3879, 3889, 3899, 3900, 3915, 3951, 3977, 4084, 4092, 4165, 4170, 4219, 4237, 4241, 4242
 4269, 4274, 4275, 4279, 4293, 4298, 4312, 4315, 4324, 4327, 4329, 4334, 4350, 4363, 4381, 4382
 4394, 4402, 4407, 4429, 4436, 4445, 4468, 4469, 4474, 4481, 4491, 4500, 4513, 4517, 4519, 4522
 4535, 4538, 4543, 4545, 4551, 4555, 4557, 4566, 4574, 4577, 4582, 4594, 4599, 4601, 4627, 4629
 4636, 4653, 4654, 4660, 4664, 4667, 4669, 4683, 4684, 4694, 4703, 4711, 4716, 4722, 4742, 4747
 4753, 4759, 4765, 4772, 4775, 4779, 4780, 4782, 4783, 4789, 4790, 4799, 4805, 4807, 4810, 4813
 4818, 4827, 4828, 4833, 4834, 4843, 4853, 4854, 4857, 4858, 4859, 4861, 4862, 4866, 4869, 4873
 4875, 4877, 4878, 4879, 4893, 4902, 4904, 4905, 4906, 4913, 4914, 4918, 4922, 4923, 4924, 4929
 4933, 4937, 4938, 4943, 4947, 4961, 4976, 4986, 4990, 4992, 4997, 5003, 5006, 5007, 5010, 5042
 5047, 5050, 5051, 5052, 5057, 5059, 5060, 5061, 5062, 5068, 5069, 5072, 5073, 5074, 5076, 5082
 5093, 5107, 5109, 5113, 5118, 5121, 5143, 5149, 5156, 5157, 5159, 5162, 5164, 5171, 5181, 5184
 5191, 5199, 5209, 5215, 5218, 5219, 5220, 5230, 5234, 5250, 5260, 5267, 5268, 5271, 5273, 5282
 5285, 5287, 5288, 5289, 5296, 5304, 5310, 5311, 5317, 5319, 5320, 5324, 5329, 5331, 5334, 5340
 5344, 5348, 5354, 5358, 5369, 5380, 5381, 5382, 5391, 5399, 5403, 5408, 5421, 5437, 5439, 5447
 5454, 5471, 5479, 5527, 5528, 5565, 5610, 5677, 5771, 5775, 5812, 5813, 5831, 5853, 5855, 5866
 5943, 6106, 6221, 6235, 6239
*Elset, elset=_CP-2-Part-1-1_S2, internal, instance=Part-1-1
   61,  121, 1611, 1873, 2010, 2763, 2787, 2823, 3070, 3093, 3119, 3146, 3185, 3187, 3243, 3262
 3264, 3272, 3304, 3356, 3363, 3380, 3399, 3542, 3597, 3703, 3725, 4265, 4286, 4489, 4533, 4615
 4728, 4752, 4804, 5083, 5097, 5102, 5201, 5214, 5263, 5301, 5418, 5509, 5907
*Elset, elset=_CP-2-Part-1-1_S1, internal, instance=Part-1-1
  133,  277, 1317, 1830, 2944, 3188, 3469, 3657, 3782, 4305, 4355, 4401, 4414, 4505, 4602, 4625
 4637, 4712, 4726, 5295
*Elset, elset=_CP-2-Part-1-1_S4, internal, instance=Part-1-1
  203,  692, 1010, 1807, 1813, 1819, 1866, 2015, 2056, 2402, 2494, 2616, 2646, 3024, 3044, 3048
 3103, 3117, 3240, 3277, 3352, 3406, 3409, 3424, 3451, 3456, 3462, 3471, 3495, 3508, 3547, 3568
 3610, 3621, 3633, 3641, 3659, 3726, 4392, 4410, 4483, 4504, 4511, 4597, 4630, 4695, 4847, 4851
 4958, 5049, 5132, 5204, 5226, 5249, 5390, 6265
*Surface, type=ELEMENT, name=CP-2-Part-1-1
_CP-2-Part-1-1_S3, S3
_CP-2-Part-1-1_S2, S2
_CP-2-Part-1-1_S4, S4
_CP-2-Part-1-1_S1, S1
*Elset, elset=_CP-2-Part-2-1_SPOS, internal, instance=Part-2-1, generate
  757,  1218,     1
*Surface, type=ELEMENT, name=CP-2-Part-2-1
_CP-2-Part-2-1_SPOS, SPOS
*Elset, elset=_CP-3-Part-1-1_S3, internal, instance=Part-1-1
   19,  293,  605,  675,  762,  790,  964, 1502, 1628, 1638, 1658, 1678, 1737, 1754, 1770, 1794
 1813, 1837, 1894, 1939, 1999, 2010, 2015, 2056, 2091, 2095, 2191, 2208, 2228, 2271, 2303, 2305
 2320, 2333, 2346, 2388, 2402, 2461, 2508, 2511, 2566, 2567, 2578, 2616, 2629, 2646, 2717, 2758
 2759, 2766, 3024, 3030, 3043, 3045, 3054, 3060, 3074, 3087, 3098, 3100, 3102, 3103, 3117, 3119
 3126, 3131, 3140, 3150, 3155, 3159, 3162, 3182, 3187, 3191, 3200, 3206, 3216, 3223, 3228, 3233
 3238, 3240, 3255, 3258, 3262, 3272, 3273, 3274, 3277, 3278, 3304, 3316, 3330, 3332, 3336, 3340
 3345, 3352, 3356, 3363, 3371, 3375, 3380, 3393, 3397, 3399, 3406, 3409, 3424, 3437, 3440, 3442
 3451, 3455, 3460, 3463, 3465, 3474, 3480, 3483, 3484, 3488, 3495, 3497, 3505, 3508, 3511, 3512
 3542, 3551, 3555, 3556, 3565, 3573, 3574, 3584, 3588, 3596, 3597, 3604, 3610, 3612, 3615, 3622
 3623, 3625, 3629, 3633, 3634, 3646, 3657, 3659, 3682, 3702, 3703, 3705, 3712, 3718, 3722, 3723
 3731, 3735, 3739, 3740, 3744, 3757, 3770, 3783, 3788, 3791, 3806, 3807, 3816, 3825, 3826, 3831
 3841, 3842, 3853, 3859, 3860, 3876, 3878, 3883, 3888, 3893, 3894, 3897, 3898, 3901, 3929, 3937
 3938, 3955, 3958, 3960, 3961, 3964, 3976, 3985, 3986, 3989, 3992, 3998, 4006, 4011, 4012, 4013
 4021, 4022, 4025, 4036, 4038, 4047, 4048, 4055, 4059, 4071, 4079, 4083, 4096, 4097, 4099, 4100
 4103, 4105, 4116, 4118, 4119, 4124, 4126, 4128, 4141, 4147, 4148, 4157, 4158, 4169, 4172, 4175
 4179, 4187, 4194, 4198, 4200, 4202, 4207, 4209, 4212, 4222, 4268, 4285, 4288, 4309, 4328, 4330
 4368, 4376, 4400, 4421, 4441, 4487, 4492, 4504, 4511, 4548, 4734, 4792, 4910, 4994, 5258, 5356
 5385, 5463, 5468, 5603, 5608, 5616, 5830, 5906, 6016, 6207
*Elset, elset=_CP-3-Part-1-1_S1, internal, instance=Part-1-1
  132, 1368, 1670, 1728, 1773, 1784, 1820, 1902, 2007, 2067, 2154, 2239, 2289, 2322, 2359, 2453
 2606, 2610, 3048, 3059, 3063, 3135, 3412, 3456, 3471, 3621, 3641, 3708, 3950, 3988, 3993, 4037
 4042, 4074, 4086, 4098, 4127, 4139, 4196, 4327, 4934
*Elset, elset=_CP-3-Part-1-1_S2, internal, instance=Part-1-1
  459, 1263, 1587, 1736, 1801, 1863, 1893, 1903, 1955, 1976, 2021, 2026, 2028, 2064, 2107, 2182
 2206, 2209, 2244, 2559, 3052, 3084, 3166, 3172, 3197, 3263, 3300, 3301, 3329, 3378, 3400, 3445
 3568, 3652, 3707, 3882, 3994, 4000, 4058, 4087, 4134, 4168, 4208, 4225, 4254, 4287, 4347, 4614
*Elset, elset=_CP-3-Part-1-1_S4, internal, instance=Part-1-1
 1373, 1661, 1718, 1941, 2044, 2338, 2344, 3125, 3428, 3746, 3968, 3969, 3984, 4007, 4056, 4082
 4104, 4110, 4115, 4121, 4146, 4153, 4177, 4183, 4197, 4214, 4424, 4564, 5165
*Surface, type=ELEMENT, name=CP-3-Part-1-1
_CP-3-Part-1-1_S3, S3
_CP-3-Part-1-1_S1, S1
_CP-3-Part-1-1_S2, S2
_CP-3-Part-1-1_S4, S4
*Elset, elset=_CP-3-Part-3-1_SNEG, internal, instance=Part-3-1, generate
   1,  300,    1
*Surface, type=ELEMENT, name=CP-3-Part-3-1
_CP-3-Part-3-1_SNEG, SNEG
*Elset, elset=_CP-4-Part-1-1_S3, internal, instance=Part-1-1
  132,  145,  253,  408,  445,  459,  609,  763, 1124, 1164, 1169, 1263, 1368, 1373, 1384, 1503
 1580, 1584, 1602, 1605, 1622, 1631, 1640, 1643, 1644, 1659, 1671, 1673, 1674, 1681, 1690, 1692
 1700, 1701, 1711, 1712, 1717, 1718, 1721, 1722, 1728, 1729, 1736, 1747, 1757, 1781, 1782, 1784
 1785, 1798, 1801, 1811, 1812, 1814, 1820, 1823, 1839, 1842, 1849, 1863, 1877, 1882, 1888, 1893
 1902, 1904, 1911, 1916, 1920, 1928, 1930, 1938, 1941, 1944, 1954, 1955, 1965, 1968, 1970, 1975
 1980, 1982, 1996, 1998, 2000, 2007, 2008, 2013, 2020, 2025, 2026, 2037, 2038, 2044, 2063, 2067
 2087, 2088, 2090, 2092, 2097, 2103, 2107, 2109, 2112, 2125, 2130, 2139, 2143, 2154, 2165, 2172
 2176, 2183, 2184, 2185, 2199, 2206, 2221, 2226, 2227, 2233, 2239, 2244, 2248, 2250, 2254, 2257
 2259, 2280, 2287, 2289, 2296, 2322, 2325, 2332, 2335, 2341, 2344, 2347, 2359, 2370, 2372, 2375
 2376, 2379, 2385, 2398, 2400, 2401, 2405, 2408, 2416, 2425, 2427, 2428, 2431, 2433, 2440, 2449
 2453, 2454, 2457, 2458, 2464, 2469, 2476, 2483, 2495, 2496, 2498, 2521, 2531, 2538, 2540, 2541
 2542, 2548, 2559, 2560, 2563, 2568, 2570, 2571, 2574, 2579, 2582, 2586, 2593, 2597, 2601, 2608
 2613, 2628, 2632, 2641, 2645, 2654, 2658, 2665, 2675, 2676, 2679, 2683, 2686, 2694, 2703, 2714
 2715, 2716, 2723, 2729, 2734, 2741, 2742, 2748, 2749, 2752, 2757, 2767, 2769, 2773, 2776, 2784
 2785, 2789, 2790, 2794, 2795, 2815, 2820, 2822, 2824, 2827, 2837, 2838, 2843, 2844, 2846, 2851
 2859, 2862, 2863, 2867, 2868, 2871, 2874, 2884, 2885, 2892, 2896, 2900, 2901, 2907, 2909, 2913
 2917, 2921, 2922, 2924, 2927, 2938, 2947, 2950, 2963, 2966, 2969, 2970, 2972, 2974, 2981, 2982
 2987, 2991, 2993, 2994, 2995, 3003, 3026, 3033, 3063, 3068, 3080, 3089, 3090, 3120, 3137, 3145
 3151, 3154, 3171, 3180, 3186, 3196, 3201, 3215, 3217, 3231, 3248, 3251, 3252, 3254, 3265, 3267
 3300, 3317, 3318, 3329, 3347, 3370, 3374, 3378, 3394, 3427, 3428, 3431, 3443, 3445, 3450, 3477
** ... 5 like lines cut
*Elset, elset=_CP-4-Part-1-1_S2, internal, instance=Part-1-1
  140, 1588, 1601, 1710, 1787, 1856, 1981, 2133, 2166, 2245, 2345, 2351, 2529, 2543, 2584, 2821
 2832, 2934, 3061, 3099, 3261, 3422, 4744, 4831
*Elset, elset=_CP-4-Part-1-1_S1, internal, instance=Part-1-1
  438,  965, 1038, 1587, 1598, 2797, 3745, 3748, 4507, 4965, 5106, 6298
*Elset, elset=_CP-4-Part-1-1_S4, internal, instance=Part-1-1
  491, 1044, 1670, 1687, 1780, 2141, 2295, 2535, 2554, 2747, 2791, 2793, 2825, 3795, 3804, 3957
 4419, 4529, 4743, 4800, 5231, 5422, 6117, 6227
*Surface, type=ELEMENT, name=CP-4-Part-1-1
_CP-4-Part-1-1_S3, S3
_CP-4-Part-1-1_S2, S2
_CP-4-Part-1-1_S4, S4
_CP-4-Part-1-1_S1, S1
*Elset, elset=_CP-4-Part-3-1_SPOS, internal, instance=Part-3-1, generate
 301,  768,    1
*Surface, type=ELEMENT, name=CP-4-Part-3-1
_CP-4-Part-3-1_SPOS, SPOS
*Rigid Body, ref node=Part-2-1.Part-2-RefPt_, elset=Part-2-1.Part-2
*Rigid Body, ref node=Part-3-1.Part-3-RefPt_, elset=Part-3-1.Part-3
*End Assembly
** 
** ELEMENT CONTROLS
** 
*Section Controls, name=EC-1, DISTORTION CONTROL=YES
1., 1., 1.
*Amplitude, name=Amp-1
             0.,              0.,         0.00025,     2.62233e-06,          0.0005,     5.49417e-06,         0.00075,     8.61554e-06
          0.001,     1.19864e-05,         0.00125,     1.56068e-05,          0.0015,     1.94767e-05,         0.00175,     2.35962e-05
          0.002,     2.79651e-05,         0.00225,     3.25836e-05,          0.0025,     3.74516e-05,         0.00275,     4.25691e-05
          0.003,     4.79362e-05,         0.00325,     5.35527e-05,          0.0035,     5.94188e-05,         0.00375,     6.55344e-05
          0.004,     7.18995e-05,         0.00425,     7.85142e-05,          0.0045,     8.53783e-05,         0.00475,      9.2492e-05
          0.005,     9.98552e-05,         0.00525,     0.000107468,          0.0055,      0.00011533,         0.00575,     0.000123442
          0.006,     0.000131803,         0.00625,     0.000140414,          0.0065,     0.000149274,         0.00675,     0.000158384
          0.007,     0.000167743,         0.00725,     0.000177352,          0.0075,     0.000187211,         0.00775,     0.000197318
          0.008,     0.000207676,         0.00825,     0.000218283,          0.0085,     0.000229139,         0.00875,     0.000240245
          0.009,     0.000251601,         0.00925,     0.000263206,          0.0095,      0.00027506,         0.00975,     0.000287164
           0.01,     0.000299518,         0.01025,     0.000312121,          0.0105,     0.000324973,         0.01075,     0.000338075
          0.011,     0.000351427,         0.01125,     0.000365028,          0.0115,     0.000378879,         0.01175,     0.000392979
          0.012,     0.000407328,         0.01225,     0.000421927,          0.0125,     0.000436776,         0.01275,     0.000451874
          0.013,     0.000467222,         0.01325,     0.000482819,          0.0135,     0.000498666,         0.01375,     0.000514762
          0.014,     0.000531108,         0.01425,     0.000547703,          0.0145,     0.000564547,         0.01475,     0.000581642
          0.015,     0.000598985,         0.01525,     0.000616578,          0.0155,     0.000634421,         0.01575,     0.000652513
          0.016,     0.000670855,         0.01625,     0.000689446,          0.0165,     0.000708287,         0.01675,     0.000727377
          0.017,     0.000746716,         0.01725,     0.000766305,          0.0175,     0.000786144,         0.01775,     0.000806232
          0.018,     0.000826569,         0.01825,     0.000847156,          0.0185,     0.000867993,         0.01875,     0.000889079
          0.019,     0.000910414,         0.01925,     0.000931999,          0.0195,     0.000953834,         0.01975,     0.000975917
** ... 4980 like lines cut
** 
** MATERIALS
** 
*Material, name=Material-1
*Density
1010.,
*Depvar
    150,
*User Material, constants=23
 3.73e+07,       0.35,        10.,   0.108015, 0.00804961,   0.106384,  0.0101843,   0.106305
  0.0102983,  0.0263395,    1.02601,   0.115562,   0.100772,   0.108539, 0.00743151,   0.107561
 0.00860657,   0.105903,  0.0108982,   0.108081, 0.00797005,   0.105834,  0.0110047
** 
** INTERACTION PROPERTIES
** 
*Surface Interaction, name=IntProp-1
1.,
*Cohesive Behavior
 1e+13, 1e+13, 1e+13
** 
** INTERACTIONS
** 
** Interaction: CP-2-Part-2-1-Part-1-1
*Contact Pair, interaction=IntProp-1, small sliding, type=SURFACE TO SURFACE
CP-2-Part-1-1, CP-2-Part-2-1
** Interaction: CP-4-Part-3-1-Part-1-1
*Contact Pair, interaction=IntProp-1, small sliding, type=SURFACE TO SURFACE
CP-4-Part-1-1, CP-4-Part-3-1
** ----------------------------------------------------------------
** 
** STEP: Step-1
** 
*Step, name=Step-1, nlgeom=YES, inc=100000000
*Dynamic
0.01,5.,1e-12,0.01
** 
** BOUNDARY CONDITIONS
** 
** Name: BC-2 Type: Displacement/Rotation
*Boundary, amplitude=Amp-1
_PickedSet19, 1, 1
_PickedSet19, 2, 2
_PickedSet19, 3, 3
_PickedSet19, 4, 4
_PickedSet19, 5, 5
_PickedSet19, 6, 6, -1.
** Name: BC-3 Type: Displacement/Rotation
*Boundary
_PickedSet20, 1, 1
_PickedSet20, 2, 2
_PickedSet20, 3, 3
_PickedSet20, 4, 4
_PickedSet20, 5, 5
_PickedSet20, 6, 6
** 
** OUTPUT REQUESTS
** 
*Restart, write, frequency=0
** 
** FIELD OUTPUT: F-Output-1
** 
*Output, field, variable=PRESELECT
** 
** HISTORY OUTPUT: H-Output-2
** 
*Output, history, frequency=1
*Node Output, nset=RPB
RM3, UR3
** 
** HISTORY OUTPUT: H-Output-1
** 
*Node Output, nset=RPT
RM3, UR3
*End Step
